Circuit: * D:\Ubeyd\Bitirme - 1\kod\genetik_algoritmalar\bitirme-I\pyspice\test\stepper\Batch_Test.asc

Direct Newton iteration failed to find .op point.  (Use ".option noopiter" to skip.)
Starting Gmin stepping
Gmin = 10
Gmin = 1.07374
Gmin = 0.115292
Gmin = 0.0123794
Gmin = 0.00132923
Gmin = 0.000142725
Gmin = 1.5325e-005
Gmin = 1.6455e-006
Gmin = 1.76685e-007
Gmin = 1.89714e-008
Gmin = 2.03704e-009
Gmin = 2.18725e-010
Gmin = 2.34854e-011
Gmin = 2.52173e-012
Gmin = 2.70769e-013
Gmin = 0
Gmin stepping succeeded in finding the operating point.

.step freq=10000
.step freq=12589.3
.step freq=15848.9
.step freq=19952.6
.step freq=25118.9
.step freq=31622.8
.step freq=39810.7
.step freq=50118.7
.step freq=63095.7
.step freq=79432.8
.step freq=100000
.step freq=125893
.step freq=158489
.step freq=199526
.step freq=251189
.step freq=316228
.step freq=398107
.step freq=501187
.step freq=630957
.step freq=794328
.step freq=1e+006


Measurement: vout_rms
  step	RMS(v(out))	FROM	TO
     1	1.0591	0	0.001
     2	1.0591	0	0.001
     3	1.0591	0	0.001
     4	1.0591	0	0.001
     5	1.0591	0	0.001
     6	1.0591	0	0.001
     7	1.0591	0	0.001
     8	1.0591	0	0.001
     9	1.0591	0	0.001
    10	1.0591	0	0.001
    11	1.0591	0	0.001
    12	1.0591	0	0.001
    13	1.0591	0	0.001
    14	1.0591	0	0.001
    15	1.0591	0	0.001
    16	1.0591	0	0.001
    17	1.0591	0	0.001
    18	1.0591	0	0.001
    19	1.0591	0	0.001
    20	1.0591	0	0.001
    21	1.0591	0	0.001

Measurement: vin_rms
  step	RMS(v(in))	FROM	TO
     1	0.70613	0	0.001
     2	0.70613	0	0.001
     3	0.70613	0	0.001
     4	0.70613	0	0.001
     5	0.70613	0	0.001
     6	0.70613	0	0.001
     7	0.70613	0	0.001
     8	0.70613	0	0.001
     9	0.70613	0	0.001
    10	0.70613	0	0.001
    11	0.70613	0	0.001
    12	0.70613	0	0.001
    13	0.70613	0	0.001
    14	0.70613	0	0.001
    15	0.70613	0	0.001
    16	0.70613	0	0.001
    17	0.70613	0	0.001
    18	0.70613	0	0.001
    19	0.70613	0	0.001
    20	0.70613	0	0.001
    21	0.70613	0	0.001

Measurement: gain
  step	vout_rms/vin_rms
     1	1.49987
     2	1.49987
     3	1.49987
     4	1.49987
     5	1.49987
     6	1.49987
     7	1.49987
     8	1.49987
     9	1.49987
    10	1.49987
    11	1.49987
    12	1.49987
    13	1.49987
    14	1.49987
    15	1.49987
    16	1.49987
    17	1.49987
    18	1.49987
    19	1.49987
    20	1.49987
    21	1.49987

Measurement: vout1m
  step	v(out)	at
     1	-0.0013187	0.001
     2	-0.0013187	0.001
     3	-0.0013187	0.001
     4	-0.0013187	0.001
     5	-0.0013187	0.001
     6	-0.0013187	0.001
     7	-0.0013187	0.001
     8	-0.0013187	0.001
     9	-0.0013187	0.001
    10	-0.0013187	0.001
    11	-0.0013187	0.001
    12	-0.0013187	0.001
    13	-0.0013187	0.001
    14	-0.0013187	0.001
    15	-0.0013187	0.001
    16	-0.0013187	0.001
    17	-0.0013187	0.001
    18	-0.0013187	0.001
    19	-0.0013187	0.001
    20	-0.0013187	0.001
    21	-0.0013187	0.001

Measurement: period
  step	time	at
     1	9.83727e-009	9.83727e-009
     2	9.83727e-009	9.83727e-009
     3	9.83727e-009	9.83727e-009
     4	9.83727e-009	9.83727e-009
     5	9.83727e-009	9.83727e-009
     6	9.83727e-009	9.83727e-009
     7	9.83727e-009	9.83727e-009
     8	9.83727e-009	9.83727e-009
     9	9.83727e-009	9.83727e-009
    10	9.83727e-009	9.83727e-009
    11	9.83727e-009	9.83727e-009
    12	9.83727e-009	9.83727e-009
    13	9.83727e-009	9.83727e-009
    14	9.83727e-009	9.83727e-009
    15	9.83727e-009	9.83727e-009
    16	9.83727e-009	9.83727e-009
    17	9.83727e-009	9.83727e-009
    18	9.83727e-009	9.83727e-009
    19	9.83727e-009	9.83727e-009
    20	9.83727e-009	9.83727e-009
    21	9.83727e-009	9.83727e-009


Date: Fri Oct 29 19:37:27 2021
Total elapsed time: 0.911 seconds.

tnom = 27
temp = 27
method = modified trap
totiter = 2460
traniter = 2092
tranpoints = 1047
accept = 1046
rejected = 1
matrix size = 11
fillins = 2
solver = Normal
Matrix Compiler1: 602 bytes object code size  0.2/0.1/[0.0]
Matrix Compiler2: 1.08 KB object code size  0.2/0.2/[0.1]

